24
	difenil metonio MP2|cc-pVTZ Energy: -312882.6391335
C          3.84299       -0.61882        0.03275
C          3.65370        0.71841       -0.33083
C          2.38409        1.26394       -0.29302
C          1.27180        0.45273        0.05407
C          1.48326       -0.89232        0.45328
C          2.76420       -1.41211        0.44302
C          0.00000        1.05777       -0.00000
C         -1.27180        0.45273       -0.05407
C         -2.38409        1.26394        0.29302
C         -3.65370        0.71841        0.33083
C         -3.84299       -0.61882       -0.03275
C         -2.76420       -1.41211       -0.44302
C         -1.48326       -0.89232       -0.45328
H          0.00000        2.14600        0.00000
H          4.84021       -1.03782        0.02650
H          4.49849        1.32514       -0.62282
H          2.21893        2.29902       -0.56305
H          0.66024       -1.47663        0.83776
H          2.93793       -2.42701        0.77068
H         -2.21893        2.29902        0.56305
H         -4.49849        1.32514        0.62282
H         -4.84021       -1.03782       -0.02650
H         -2.93793       -2.42701       -0.77068
H         -0.66024       -1.47663       -0.83776
