280
rh_select.pdb	Energy:       0.0000000
  C       17.76700        3.28100        2.92000
  C       18.29200        4.65400        3.44100
  C       17.26500        5.78300        3.54000
  O       16.33900        5.81100        2.68800
  O       17.46500        6.66600        4.46200
  H       17.22700        2.72100        3.68300
  H       18.68500        2.76100        2.66800
  H       17.14000        3.37400        2.02700
  H       18.92900        4.63500        4.32700
  H       18.94300        4.91800        2.58500
  C       13.85900        6.02700        7.47300
  H       13.53100        5.40800        8.30800
  H       13.59900        7.03100        7.65900
  H       14.90400        5.95100        7.36600
  H       13.47900        5.61600        6.51700
  C        9.10300        3.16300        7.86500
  O        9.36800        3.35700        6.49100
  C        7.57800        3.08600        8.00200
  H        9.42200        4.00900        8.47400
  H        9.49500        2.23400        8.26100
  H       10.32900        3.31600        6.29300
  H        7.09700        3.95000        7.37000
  H        7.27500        2.10300        7.46100
  H        7.20700        2.99400        9.02700
  C        6.78600        3.58400       13.89300
  C        5.91000        4.12300       12.76700
  C        4.63600        4.68200       13.12900
  O        3.73700        4.03700       13.68500
  O        4.44900        6.03000       12.95200
  H        7.17000        4.37800       14.53400
  H        7.54800        3.04600       13.45200
  H        6.15300        2.95400       14.51100
  H        6.57100        4.76500       12.17700
  H        5.76300        3.40800       12.02600
  H        3.49200        6.15100       12.97400
  C        5.33500        8.21300       16.76300
  C        3.93300        8.80900       17.02900
  C        4.10700       10.17600       17.81600
  C        3.33000        9.17700       15.75200
  H        5.85700        8.12200       17.71500
  H        5.94200        8.87000       16.17600
  H        5.29700        7.27700       16.19300
  H        3.30100        8.22000       17.68200
  H        3.09500       10.50600       17.86000
  H        4.60600       10.10200       18.76100
  H        4.63800       10.80900       17.10000
  H        4.10500        9.63800       15.08700
  H        2.98700        8.30600       15.11500
  H        2.44100        9.85900       15.87200
  C       10.43300        1.95700       -0.40200
  C       10.04400        1.74100        1.01700
  C       10.02200        2.78100        1.99000
  C        9.69800        2.58500        3.32300
  C        9.56200        1.25800        3.82100
  O        9.04400        0.98300        5.03100
  C        9.53700        0.16900        2.90400
  C        9.80400        0.43300        1.55500
  H        9.63400        2.37600       -1.01400
  H       10.67900        0.95700       -0.82800
  H       11.33700        2.55400       -0.45400
  H       10.38000        3.76100        1.55000
  H        9.69400        3.54100        3.94000
  H        8.96900        1.78000        5.58500
  H        9.24300       -0.80400        3.30300
  H        9.69500       -0.37500        0.82200
  C       16.85500        9.17300        1.60600
  O       16.17700       10.27300        1.00200
  H       17.02600        8.39700        0.85900
  H       16.14800        8.78400        2.35700
  H       17.82300        9.43900        2.13000
  H       15.26500       10.33100        1.30900
  C        5.48100        5.52400        1.87300
  C        4.02100        5.20800        1.33700
  C        6.07200        4.35200        2.72200
  C        5.98600        2.96900        2.09300
  H        6.15100        5.59000        1.01500
  H        5.49000        6.39800        2.41000
  H        4.03200        4.34500        0.59700
  H        3.50800        4.97100        2.26400
  H        3.56200        6.03500        0.88200
  H        7.09900        4.51900        3.07000
  H        5.53500        4.37900        3.64300
  H        6.65700        2.87800        1.20900
  H        6.32400        2.29500        2.83100
  H        4.96000        2.78700        1.71300
  C        2.74000       10.51700       -1.17800
  C        3.93600       10.58100       -0.26800
  C        3.93300        9.78500        0.83600
  C        5.17700        9.63600        1.51300
  C        6.33300       10.32400        1.13100
  O        7.48700       10.07500        1.76800
  C        6.17300       11.30300        0.17400
  C        4.98500       11.52900       -0.47900
  H        2.81300        9.69700       -1.89200
  H        2.62000       11.52100       -1.70400
  H        1.90300       10.30600       -0.53200
  H        3.13100        9.11100        1.09300
  H        5.25300        9.06200        2.38000
  H        8.30400       10.39900        1.31300
  H        6.98700       11.91900       -0.20000
  H        4.96800       12.33300       -1.26000
  C        0.21900        5.41400        5.93100
  C        1.60600        5.87100        6.44000
  S        2.89900        5.97700        5.24600
  C        2.25800        7.51200        4.46900
  H       -0.53300        5.29800        6.71100
  H        0.29400        4.46400        5.43900
  H       -0.06600        6.09400        5.20900
  H        1.46900        6.83100        6.86800
  H        1.85900        5.37000        7.28100
  H        2.11800        8.19700        5.36100
  H        3.04700        7.90200        3.89200
  H        1.43400        7.23200        3.84700
  C        1.05800        4.60400       11.35300
  C        0.78100        3.16300       11.72600
  N        1.39600        2.37300       12.68300
  C        0.84600        1.15200       12.63100
  N        0.03800        1.09000       11.55200
  C       -0.07900        2.36100       11.04600
  H        0.51100        5.24900       12.04100
  H        0.73500        4.68700       10.34000
  H        2.10800        4.86100       11.50100
  H        2.18200        2.68100       13.25900
  H        1.14700        0.30100       13.22400
  H       -0.71100        2.75600       10.21400
  C        0.86700       10.12200       11.49000
  C        1.24400       11.51800       11.80600
  C        2.50100       11.82200       12.42000
  C        2.87800       13.15400       12.59100
  C        2.09200       14.19200       12.02000
  C        0.80400       13.89300       11.55500
  C        0.40400       12.58300       11.27200
  H        0.49500        9.48100       12.28900
  H        1.75100        9.74400       11.15600
  H        0.14300       10.14100       10.63800
  H        3.14100       11.08300       12.86000
  H        3.75600       13.40400       13.14000
  H        2.44800       15.25800       11.99700
  H        0.10900       14.74300       11.34700
  H       -0.56100       12.45900       10.83800
  C        8.41900       13.65600       17.77300
  C        8.10100       12.45100       16.93500
  C        9.06400       11.40500       16.64200
  C        8.71700       10.44200       15.68500
  C        7.52400       10.55000       14.96900
  C        6.55100       11.48900       15.31300
  C        6.83100       12.44500       16.29700
  H        8.85400       14.44500       17.15900
  H        9.13100       13.33100       18.46300
  H        7.53900       14.04500       18.32000
  H       10.03900       11.29800       17.22900
  H        9.49700        9.74000       15.41600
  H        7.36600        9.75800       14.29400
  H        5.63700       11.45100       14.70800
  H        6.19600       13.27900       16.43800
  C        7.86000       13.59400       12.05000
  C        9.02500       12.64300       12.24200
  C        9.97900       12.65100       13.25800
  N       10.93500       11.68500       12.99500
  C       10.70800       11.04500       11.79900
  C       11.40100       10.02800       11.10100
  C       11.00900        9.69800        9.83100
  C        9.90500       10.40400        9.23000
  C        9.16300       11.35000       10.00700
  C        9.57700       11.69800       11.29100
  H        8.10400       14.45200       11.42300
  H        7.50900       13.88500       12.99900
  H        6.99500       13.04300       11.70600
  H        9.82700       13.27300       14.09400
  H       11.71600       11.65200       13.54500
  H       12.24500        9.53200       11.48700
  H       11.45800        8.88900        9.36700
  H        9.57000       10.13500        8.22000
  H        8.28300       11.88300        9.64600
  C        8.57200       14.14000        6.91600
  C        8.88900       13.00900        5.95900
  C        9.76700       13.25300        4.87100
  C       10.14600       12.23700        4.03900
  C        9.71900       10.91200        4.29800
  O       10.16000        9.84700        3.59000
  C        8.92000       10.62400        5.43100
  C        8.47200       11.70100        6.22000
  H        7.93300       14.96100        6.59200
  H        9.59100       14.60500        7.19200
  H        8.19600       13.65700        7.81800
  H       10.17300       14.26000        4.77500
  H       10.69000       12.42400        3.13200
  H       10.38700       10.16200        2.70700
  H        8.54800        9.66000        5.75300
  H        7.82200       11.59700        7.08700
  C        3.49700       13.81200        8.40000
  H        3.89800       13.87100        7.38800
  H        4.14000       13.14200        8.97600
  H        3.51200       14.76300        8.87300
  H        2.52000       13.43900        8.44600
  C       13.53000       13.61900        2.42500
  H       13.56600       14.05400        3.42400
  H       13.74400       12.59100        2.40600
  H       12.55500       13.86200        2.05100
  H       14.26200       14.10500        1.80200
  C       12.61800       13.01100        8.25000
  H       13.09400       13.56900        9.05600
  H       13.35200       12.77500        7.53200
  H       12.14200       12.16400        8.68000
  H       11.87700       13.73300        7.72200
  C       17.81000       11.52000        9.01300
  C       17.29900       11.13400        7.64100
  C       18.44800       10.61200        6.69600
  C       18.03000       10.31400        5.23600
  N       16.97600        9.27800        5.08700
  H       16.97900       11.73200        9.68500
  H       18.49100       12.32900        8.98100
  H       18.43500       10.68700        9.37900
  H       16.59400       10.30600        7.81600
  H       16.83600       12.02600        7.21900
  H       19.21500       11.38800        6.66900
  H       18.91300        9.72000        7.13700
  H       17.67600       11.23200        4.74300
  H       18.88500        9.94900        4.65200
  H       17.20100        8.31100        4.73800
  C        5.15200        8.94700        8.34500
  C        4.96500       10.12300        9.34300
  C        5.01900        9.71300       10.82600
  C        6.30700        8.94200       11.15300
  C        6.77400        7.99100       10.05900
  C        6.36800        8.08100        8.76200
  C        6.98800        7.32600        7.65000
  C        8.31700        7.41700        7.36600
  C        9.03300        7.01900        6.17400
  C       10.35000        7.45900        6.08000
  C       11.24600        7.19400        5.01400
  C       12.54200        7.63500        4.80100
  C       13.35600        8.67800        5.33800
  C       14.70400        8.56800        5.00400
  C       15.69500        9.51100        5.30600
  C        3.92100        8.00400        8.32800
  C        5.30600        9.57100        6.93000
  C        7.72200        6.90200       10.54000
  C        8.33300        6.26500        5.07000
  C       12.81200        9.82300        6.18000
  H        3.72300        7.56000        9.30500
  H        4.06300        7.18700        7.61700
  H        3.01000        8.53700        8.02300
  H        5.44200        8.82200        6.14400
  H        6.15400       10.25500        6.87500
  H        4.40400       10.15100        6.67700
  H        4.01400       10.62600        9.12200
  H        5.76300       10.86400        9.14000
  H        4.15500        9.09000       11.07300
  H        4.95000       10.61200       11.44500
  H        6.15700        8.38800       12.08400
  H        7.14000        9.65000       11.34500
  H        7.65000        6.79800       11.62800
  H        8.77500        7.08900       10.29600
  H        7.44100        5.93400       10.11500
  H        6.33000        6.83500        6.93400
  H        8.92300        7.96000        8.09000
  H        9.04500        5.74700        4.42500
  H        7.75000        6.95900        4.44700
  H        7.62900        5.53100        5.47200
  H       10.71100        8.02200        6.93700
  H       10.91300        6.45900        4.28800
  H       13.07200        7.03100        4.06800
  H       13.32200        9.87500        7.15000
  H       12.97200       10.77500        5.66300
  H       11.73900        9.74000        6.35300
  H       15.02400        7.67400        4.47000
  H       15.42500       10.47700        5.71200
  O       17.12900        5.20500        6.69200
  H       16.42100        4.61800        6.36000
  H       17.20200        5.82800        5.92900
  O       13.58900        9.93600        2.08100
  H       12.74200       10.55200        2.01600
  H       13.21600        9.27000        2.66400
  O        4.81700        3.37400        6.59000
  H        4.86400        2.44900        6.71300
  H        4.38500        3.56900        5.82100
  O        4.91200        4.95000        9.22800
  H        5.18700        5.81800        8.83400
  H        4.63200        4.40900        8.45400
